# File generated by Flopy version 3.9.2 on 06/25/2025 at 12:53:07.
BEGIN options
  SAVE_FLOWS
END options

BEGIN dimensions
  MAXBOUND  1210
END dimensions

BEGIN period  1
    OPEN/CLOSE  'local1.chd_conf_stress_period_data.txt'
END period  1

