# File generated by Flopy version 3.9.3 on 08/21/2025 at 11:29:40.
BEGIN options
  SAVE_FLOWS
END options

BEGIN dimensions
  MAXBOUND  8015
END dimensions

BEGIN period  1
    OPEN/CLOSE  'local2.chd_conf_stress_period_data.txt'
END period  1

