# File generated by Flopy version 3.9.3 on 08/21/2025 at 11:29:38.
BEGIN options
  SAVE_FLOWS
END options

BEGIN packages
  DIS6  local2.dis  dis
  NPF6  local2.npf  npf
  IC6  local2.ic  ic
  RCH6  local2.rcha  rch
  DRN6  local2.drn  drn_r
  CHD6  local2.chd  chd_pw
  CHD6  local2_0.chd  chd_conf
  WEL6  local2.wel  mbr
  WEL6  local2_0.wel  influx
  WEL6  local2_1.wel  outflux
  OC6  local2.oc  oc
END packages

