# File generated by Flopy version 3.9.3 on 08/21/2025 at 11:29:38.
BEGIN options
  PRINT_OPTION  all
  COMPLEXITY  complex
END options

