# File generated by Flopy version 3.9.3 on 08/21/2025 at 11:29:40.
BEGIN options
  SAVE_FLOWS
END options

BEGIN dimensions
  MAXBOUND  83
END dimensions

BEGIN period  1
  1 41 109 6.53200006E+00
  1 42 108 6.57900000E+00
  1 43 108 7.89900017E+00
  1 44 108 9.70899963E+00
  1 45 107 8.49100018E+00
  1 46 107 9.66800022E+00
  1 47 106 8.64999962E+00
  1 48 106 9.75199986E+00
  1 49 105 8.70699978E+00
  1 50 105 9.56299973E+00
  1 51 104 8.28400040E+00
  1 52 104 9.15999985E+00
  1 53 103 7.09800005E+00
  1 54 103 9.14299965E+00
  1 55 102 6.83599997E+00
  1 56 102 8.34500027E+00
  1 57 102 9.53899956E+00
  1 58 101 7.14799976E+00
  1 59 101 8.33500004E+00
  1 60 101 1.12440004E+01
  1 61 100 7.24900007E+00
  1 62 100 8.99300003E+00
  1 63 100 9.81599998E+00
  1 64 99 7.43599987E+00
  1 65 99 7.59200001E+00
  1 66 99 7.86800003E+00
  1 67 99 7.58599997E+00
  1 68 99 7.63199997E+00
  1 69 99 7.67700005E+00
  1 70 99 7.72700024E+00
  1 71 99 7.60799980E+00
  1 72 99 7.76900005E+00
  1 73 99 8.17800045E+00
  1 74 100 7.67799997E+00
  1 75 100 7.68100023E+00
  1 76 100 7.59899998E+00
  1 77 100 7.68599987E+00
  1 78 100 7.66200018E+00
  1 79 101 7.83300018E+00
  1 80 101 7.80299997E+00
  1 81 101 7.93499994E+00
  1 82 101 7.95300007E+00
  1 83 101 8.00800037E+00
  1 84 102 7.95900011E+00
  1 85 102 8.01399994E+00
  1 86 102 8.05099964E+00
  1 87 102 8.13899994E+00
  1 88 102 8.10200024E+00
  1 89 102 8.14299965E+00
  1 90 102 8.11499977E+00
  1 91 103 8.08300018E+00
  1 92 103 8.12699986E+00
  1 93 103 8.08399963E+00
  1 94 103 8.08500004E+00
  1 95 103 8.09399986E+00
  1 96 103 8.12800026E+00
  1 97 103 8.07299995E+00
  1 98 103 8.09200001E+00
  1 99 103 8.15100002E+00
  1 100 103 8.11200047E+00
  1 101 103 8.13000011E+00
  1 102 103 8.11100006E+00
  1 103 103 8.27799988E+00
  1 104 103 8.47700024E+00
  1 105 103 8.24100018E+00
  1 106 103 8.17599964E+00
  1 107 103 8.15499973E+00
  1 108 103 8.11200047E+00
  1 109 103 8.17199993E+00
  1 110 103 8.18000031E+00
  1 111 103 8.15799999E+00
  1 112 103 1.01840000E+01
  1 113 102 8.18900013E+00
  1 114 102 9.23400021E+00
  1 115 102 1.00570002E+01
  1 116 102 1.00570002E+01
  1 117 102 1.01660004E+01
  1 118 101 8.19999981E+00
  1 119 101 8.18500042E+00
  1 120 101 8.18000031E+00
  1 121 99 1.08330002E+01
  1 121 100 8.23200035E+00
  1 121 101 8.21100044E+00
END period  1

