# File generated by Flopy version 3.9.2 on 06/25/2025 at 12:53:07.
BEGIN options
END options

BEGIN griddata
  strt  LAYERED
    INTERNAL  FACTOR  1.0
           9.40299702       9.46026897       9.34931374       8.99343967       9.38515663      10.15766430      10.25494576      10.66790104       9.77096844       9.59261322      10.27295208      10.50748444      10.54085255      10.59614754      10.69314766      10.70452976      10.78153133      10.78569412      10.73335075      10.72889805      10.76768112      10.75771713      10.85240173      10.91391373      10.97706413      10.99979019      10.93574524      10.85270214      10.81068325      10.87005424      11.07811642      10.96514034      10.94656658      11.02624130      11.08200169      11.28231239      10.90995216      10.68168640      10.64941788      10.53057480      10.42720509      10.28576660      10.16767883      10.16305256      10.06141949      10.00737572      10.05360126      10.16494846      10.68699551      10.63362694       9.95487499       9.88809776       9.79248524       9.82531357       9.78067970       9.84051037       9.60779667       9.61812115       9.73117924       9.67532825       9.49926853
           9.37542534       9.38720322       9.29549885       9.04886246       8.97095013       9.92356777      10.20258427      10.46554852      10.83088017       8.99409103      10.20577621      10.37351799      10.51360321      10.57233620      10.66974735      10.65032959      10.70681572      10.70917416      10.71744156      10.70265579      10.69620037      10.71977615      10.72271633      10.81087875      10.90763378      10.95201397      10.88067818      10.83531189      10.82896519      10.94448948      10.97625446      10.98665905      10.93268490      10.98516941      11.00356293      11.14342594      10.83773613      10.58608913      10.55220509      10.43940163      10.29654121      10.37674999      10.26922417      10.23478413      10.03276634       9.95562363      10.00281239      10.81748772      10.95085430      10.12517738       9.86561298       9.82296276       9.75956440       9.67479801       9.74748516       9.79931068       9.68611717       9.51014900       9.63538837       9.61721802       9.49860001
           9.40557480       9.37232018       9.19363689       8.99748516       9.00678539       9.33525085      10.06128502      10.22135067      10.58116627      10.10849285       9.37219334      10.26196003      10.45095348      10.50560474      10.51254845      10.60306835      10.65991688      10.67018700      10.65242863      10.64962673      10.65044594      10.60988045      10.64922905      10.73492336      10.77570915      10.81648445      10.87304115      10.87456036      10.89986515      10.85073757      10.83561611      10.84541416      10.99221420      11.14960957      11.18342590      10.86104012      10.67274380      10.59790230      10.60931015      10.48513794      10.40922832      10.29485416      10.28885555      10.38564014      10.05956841       9.92299366      10.85276508      10.53147030      10.95974731       9.88837910       9.83706570       9.77673721       9.70299530       9.66232204       9.61296177       9.57550526       9.66131496       9.60491085       9.51970768       9.59018898       9.50926399
           9.53014278       9.50415993       9.48737144       9.36411381       9.04219818       9.23000145       9.87544823      10.19398880      10.30705452      10.63130856       9.23141289      10.04150391      10.37584114      10.47455883      10.49088001      10.55264950      10.61760616      10.55420494      10.56203175      10.58945274      10.57964611      10.58265877      10.56290245      10.60131836      10.63366222      10.71861458      10.88716316      10.99798203      10.84246922      10.81317902      10.77944469      10.74702740      10.82926369      10.98384476      11.01190758      10.77572155      10.73077583      10.80881119      10.89165592      10.61717606      10.36933327      10.30477619      10.24480915      10.27899647      10.27488613      10.90324497      10.60375214      11.17406845      10.37724018       9.85124493       9.75951385       9.75873756       9.71489906       9.74307632       9.64151478       9.55599976       9.66180515       9.61061478       9.54725742       9.61613560       9.50479507
           9.55512524       9.50392914       9.56735229       9.51693630       9.21904755       9.17198086       9.71466064       9.84496021      10.33937168      10.33777142      10.38995361       8.81059837      10.42022705      10.44669437      10.42877960      10.51818275      10.57831383      10.60830688      10.54447651      10.56535530      10.58393478      10.53413582      10.50226116      10.50450706      10.61722279      10.72886562      10.97128487      10.90979958      10.84866047      10.77125740      10.68877411      10.74524593      10.77039814      10.81719208      10.98203564      10.96862698      10.89286232      10.72893143      10.82855320      10.91467190      10.56809711      10.39641285      10.31457424      10.34497643      10.93468285      10.89511013      10.84114742      11.68075848       9.78563499       9.82351208       9.81880188       9.75933933       9.71739960       9.66715240       9.69295883       9.60478210       9.69874287       9.71619320       9.43883514       9.10686684       9.22656918
           9.53836632       9.51412487       9.60019970       9.47014999       9.16521263       9.05862427       8.84319687       8.86793804       9.99983215       9.89160347      10.30711555       9.66196918       9.53837776      10.48596668      10.50888157      10.51651669      10.56045628      10.62686539      10.58525562      10.60274887      10.60597324      10.51842690      10.47305107      10.52350521      10.59107685      10.79235649      10.81594276      10.84886742      10.81336975      10.69783878      10.74557781      10.74820042      10.74567032      10.63907814      10.78717899      10.87398529      10.86400509      10.81202412      10.82178211      11.03231716      10.86494446      10.53359985      10.39523697      10.84762096      11.09060192      10.54553890      11.70746899      10.87979031       9.87452507       9.72796440       9.51284122       9.36645889       9.34762859       9.57485104       9.67524624       9.67693901       9.55698395       9.37586594       9.02572823       8.56941128       8.81171703
           9.58029938       9.56743050       9.63491154       9.53844929       9.38544178       9.21826267       9.28782368       9.17615318       8.84757614       8.82347393       9.03410721       9.75247860       8.98054123      10.17449093      10.45769787      10.51770210      10.55477905      10.55021286      10.55010414      10.59015083      10.56030750      10.54402733      10.59451008      10.67311382      10.60705090      10.60335636      10.80996513      10.77589607      10.67111683      10.71552658      10.69247055      10.74118996      10.58693600      10.69254589      10.79952145      10.62585163      10.72041321      10.85579014      10.80255699      10.79438210      10.79717255      10.72978401      10.62163162      11.36771870      10.22534275      10.70074558      11.72388363      10.21227169       9.84484005       9.88088131       9.81212997       9.73704815       9.54032993       9.35426521       9.42139721       9.18883228       9.06584167       8.72640991       8.73594093       9.16380310       9.68084335
           9.65137577       9.60835552       9.63647556       9.52463722       9.38541603       9.16064930       9.76899529      10.07582092      10.06787872       9.97055054       9.56515503       9.28948307       9.12061405      10.00181580      10.34891987      10.38677406      10.44898033      10.66898727      10.57657433      10.48392200      10.47518444      10.56793880      10.69694424      10.68039989      10.57850742      10.63816452      10.72585773      10.77115536      10.64317894      10.61991024      10.66152668      10.57677555      10.64145088      10.68784142      10.80655479      10.89640522      10.69399357      10.75929737      10.79883862      10.88017273      11.10445404      11.16794586      11.50597954      10.73597240      10.20225716      10.76602745      11.08945942       9.87074280       9.75487518       9.76442051       9.74928951       9.30818748       8.81958199       8.88364315       9.20490074      10.01564503       9.96780491       9.70819378       9.39631081       7.90501118       7.11005449
           9.64508820       9.66881561       9.69433117       9.56241798       9.45941639       9.27688789       9.96276665      10.34480953      10.38734245      10.37562275      10.30549908      10.15604115       8.94120026       9.73253155      10.26420021      10.31987190      10.48776340      10.68688965      10.61965084      10.42345715      10.50367641      10.55464458      10.49820518      10.58465481      10.68564320      10.68686104      10.65944195      10.72450352      10.64763546      10.57108307      10.47304344      10.51229572      10.68096161      10.73625278      10.90937424      11.46019173      10.77929878      10.39500523      10.66052818      10.93028450      11.35387325      11.49372768      11.75140476      10.36491013      10.32485962      10.80477619      10.30736351       9.83773613       9.79462528       9.42254066       8.96360302       8.85459805       9.07383537      10.00673771       9.90951824       7.83630085       7.11524153       7.47079515       7.79178572       8.90219021       9.62696838
           9.65965271       9.70149803       9.66770363       9.56726360       9.49811172       9.33519077       9.83144188      10.33283710      10.50780678      10.50014400      10.46492195      10.48199654      10.35698605       9.24604511       8.96887207       9.45578098       9.84970856       9.42894745       9.97544003      10.50750542      10.51233959      10.36218739      10.40114117      10.50366592      10.54927063      10.65332317      10.78439331      10.73893642      10.66633129      10.48017120      10.30460167      10.55986118      10.74567509      10.81415844      10.59933281      10.61280823      10.39968967      10.34592628      10.44618702      11.21476841      11.85146713      12.22108364      11.92685604      10.46122265      10.41380596      11.00159073      10.06627178       9.67713928       9.19948673       8.99537468       9.31730080       9.81153107      10.09114742       8.22258282       7.70468140       9.17511845       9.71572018       9.69834423       9.55476665       9.02953625       8.64513874
           9.58992481       9.71613884       9.67273426       9.61659527       9.54442692       9.38935375       9.55735874      10.32372189      10.43830681      10.52459049      10.56025314      10.58848667      10.58038235      10.58355999      10.36631680       9.53733253       8.85928822       8.86335182       8.99327850       9.95142746      10.36295700      10.25975037      10.41150284      10.36599636      10.43661404      10.55731678      10.69505119      10.72891235      10.66607857      10.32387638      10.52967548      10.60525799      10.72087193      10.77239513      10.45144844      10.38748932      10.56538105      10.45356464      10.39414215      10.62378693      11.98134041      12.70091057      12.04776001      11.77350426      11.50654125      11.05344963       9.73915958       9.44770718       9.59797764       9.88254261      10.36482048       8.92951679       7.66530704       8.93280792       9.66082191       9.22682858       9.03931236       8.83554363       8.73504829       8.62944984       8.54356670
           9.59875870       9.75081158       9.67630577       9.61215687       9.40654278       9.20842266       9.38197422      10.23166370      10.53507519      10.72585964      10.86715221      10.84791183      10.82092190      10.89378071      10.63758373      10.39515400      10.15260124      10.20135403       9.80678272       9.02308178       8.71970272       9.50522995      10.41717243      10.41970539      10.36832523      10.50150585      10.55854893      10.67573929      10.71038532      10.49623394      10.56738091      10.75794125      10.67344761      10.99495792      10.61948490      10.30286694      10.37358379      10.58325291      10.51079178      10.37417889      11.33173084      11.88842201      11.57336140      11.01039219      10.75824833      10.28875351      10.42628479      10.17339516       9.71163082       8.65492916       7.67536163       8.40697098       9.35697460       9.36501598       9.24424934       9.10590267       9.08018875       8.95282841       8.76372623       8.65330696       8.55982685
           9.46914387       9.58268833       9.62998104       9.57164669       9.55737305       9.44363403       9.37159348       9.87930584      10.42844963      10.63693714      10.82699966      10.90598869      10.88182545      10.96090889      10.75705624      10.56243324      10.51567173      10.36896610      10.34681416      10.39893150      10.21680927       9.08158112       8.96634102      10.24862671      10.40110874      10.46772957      10.54979706      10.63603878      10.67480469      10.62606430      10.56971169      10.53638554      10.57646847      10.67813301      10.87487984      10.71719170      10.38470554      10.53301620      10.54607964      10.38613892      10.88896847      11.53843021      11.17606735      10.81120682      10.75425243       9.10749149       7.90409136       7.88719511       8.45067692       9.08262920       9.33812332       9.32504272       9.34428024       9.26540756       9.13480473       9.00003338       8.92568302       8.85007477       8.67445946       8.55952835       8.52270412
           9.53375530       9.46957397       9.45357323       9.45999241       9.44758034       9.34176922       9.58151340      10.09613609      10.59446049      10.78043365      10.84390068      10.87341118      10.85474682      10.93699360      10.71539211      10.59208488      10.67409325      10.46551228      10.38516808      10.44138241      10.38552952      10.24997807       9.97680187       8.72759056      10.14173126      10.43429089      10.44920158      10.54468632      10.59904289      10.57465076      10.50789642      10.50271702      10.47916317      10.63342285      10.69131184      10.47465420      10.33923244      10.45642376      10.41449738      10.46676636      10.46655655      11.40819073      11.11209297      10.92361164       9.19036770       8.39163971       9.83381557       9.78667831       9.51329136       9.27920437       9.26003838       9.29374218       9.25567818       9.01742363       8.82278442       8.72337246       8.72358036       8.72748947       8.65068913       8.64125633       8.62770557
           9.48768616       9.45231724       9.34381580       9.36621284       9.43093300       9.25532818       9.80182076      10.25364304      10.61447716      10.94606400      11.03185272      10.93789768      10.84600925      10.83422565      10.67314529      10.54438210      10.60059547      10.49627209      10.30431080      10.43490124      10.56970596      10.40426540      10.36284924      10.30583858       9.06715012      10.26439190      10.44780636      10.54744625      10.53783798      10.56060505      10.45017147      10.52500916      10.60437393      10.48415661      10.52561283      10.26883793      10.29585266      10.22545910      10.22144508      10.06922054      10.01764202      11.26615810      10.93983555      10.97703362       8.36906910       9.53365421       9.76966095       9.16881466       9.09024334       9.34019375       9.21253109       9.04307652       8.91095066       8.84568024       8.92895031       8.98061562       9.02011490       8.98366356       8.89914417       8.74435806       8.77486229
           9.56711197       9.49926281       9.39968681       9.16768456       9.19496155       9.13952827       9.68543530      10.41750526      10.61204147      10.75060177      11.02941322      10.94265938      10.78963661      10.78994560      10.65913773      10.54421425      10.60433578      10.56319523      10.30954552      10.24379539      10.52758408      10.54735374      10.53945637      10.31207085      10.15401554       9.26473427      10.32056141      10.34544277      10.46616936      10.56605148      10.46641636      10.53293800      10.40925312      10.35255814      10.52106571      10.23468018      10.19718742      10.11927223       9.94201279       9.82791519       9.98333645      11.13474274      10.39807034      10.74813557       8.47970104       9.62691975       9.38436985       9.17289448       9.07666111       9.21646118       9.04718399       9.01744843       9.13472366       9.31515026       9.32223034       9.26579380       9.21627712       9.13219070       9.01379681       8.83761406       8.80065918
           9.58578205       9.54634380       9.39168453       8.99543476       8.95935822       9.04911995       9.48442554      10.12372494      10.69480133      10.88288021      10.97124290      10.89729881      10.80450535      10.79602718      10.72948170      10.74226379      10.59420967      10.55161953      10.28787994      10.29917145      10.36089420      10.51469326      10.55497265      10.44112206      10.22639847      10.27605724       8.82007027       9.80468464      10.29402733      10.36090088      10.45387363      10.52637100      10.35777473      10.28109074      10.36349392      10.26327038      10.17266560       9.96013451       9.91026115       9.06444645       8.80235481      10.19533730       8.50757313       8.81931686       7.75189114       9.57983017       9.17733002       9.20387650       9.59267044      10.43642044      10.71158409       9.81617260       9.42367840       9.27368927       9.22224140       9.38145447       9.35295200       9.22794247       9.14031410       9.00611973       8.92388630
           9.63748932       9.59701633       9.49341774       9.30059814       9.13946056       9.03292465       9.33576202       9.64765644      10.26375866      10.72214890      10.91030216      10.88195705      10.85825253      10.83594704      10.72060204      10.57766533      10.54646206      10.58791351      10.37375832      10.27232838      10.09918880      10.33329773      10.68602371      10.53786373      10.34342098      10.18477440      10.50426388       9.53145599       9.03756142       9.97441959      10.16214085      10.23850060      10.31443977      10.35055161      10.26236916      10.08882713      10.02954197      10.05647373       8.85200596       8.72046280      10.39688492      10.58604527      10.45789433       8.14490414       9.57028675       9.56830692       9.25687218       9.53311062      11.55019379      13.83099556      16.27928352      15.74925423      11.84966373       9.72900963       9.28812027       9.20817947       9.14276981       9.08048630       9.08832169       9.00072765       8.89182091
           9.63410568       9.64355850       9.56471157       9.44023800       9.36096001       9.14492321       9.07320118       9.24685287       9.92005730      10.50493717      10.82419395      10.79048157      10.81364441      10.78078556      10.75467205      10.55314922      10.47800922      10.50382042      10.42151546      10.24163532      10.09101295      10.00745773      10.20025921      10.39356041      10.42297268      10.20738602      10.13438225      10.11327171       9.78825569       8.68137646      10.05649281      10.28216362      10.19174385      10.22437954      10.13445568       9.94468594       9.99825287       8.88646698       8.80183506      10.26210594      10.70087337      10.56456757       8.93799686       9.90463543      10.16292667       9.57202053       9.59700680      10.19399071      14.19769001      18.58452225      20.20836067      21.84921455      19.01777840      12.82693100      10.17551517       9.58129883       9.40117264       9.35828114       9.33960342       9.27907372       9.15822601
           9.62425423       9.60103512       9.63585472       9.53531837       9.45339394       9.17878532       9.02340984       9.02009773       9.49440765      10.15359402      10.63767338      10.89078712      10.78029728      10.67510605      10.65353966      10.49757576      10.46892929      10.54025555      10.60396671      10.44578362      10.08268833       9.99353790      10.01170540      10.10592651      10.23556042      10.00383377       9.97486401       9.93277740       9.99565887       9.88690758       8.83040810       9.68999004      10.11564636       9.89616680       9.88258266       9.99360180       8.50906849       9.05904293      10.27739048      10.27278233      10.64229107      10.36683369       8.74578094      10.14172173      10.12689400       9.86883163      10.20638561      11.65360641      16.85375214      22.11246300      24.46294785      26.92269897      25.98784447      19.76082802      14.26154423      11.49485397      10.05090714       9.60125256       9.44233799       9.41519356       9.34838390
           9.65402699       9.63321114       9.60952759       9.61201000       9.55821133       9.46797752       9.34744453       9.10927200       9.39320183       9.66896343      10.09071636      10.40476322      10.48477554      10.60650921      10.72519398      10.61025238      10.57773304      10.51510906      10.43127537      10.46811676      10.36581421      10.06848335      10.10649776      10.21390247      10.28276443      10.26461792      10.05451870       9.84148121       9.89121151       9.89331341      10.08139038       9.09190369       9.48008823       9.69620514       9.76050568       8.97250557       8.90345287      10.36493587      10.43165779      10.28514194      10.38411331       9.38019180       9.64426422      10.22895718      10.31211376      10.31469250      10.63283348      13.61302757      20.59224510      25.73316383      28.45227814      30.81237984      31.06182098      27.28669930      22.40254784      17.24867249      13.22173405      11.26714516       9.83408833       9.65177917       9.59816933
           9.69906235       9.62913418       9.58364677       9.54805756       9.51825428       9.46745968       9.35648155       9.03547382       9.29607391       9.42084980       9.44336605       9.62712002       9.74938869       9.96625137      10.36856365      10.61902046      10.68500614      10.72629261      10.54112816      10.54548359      10.45624447      10.22319984      10.07398891      10.09910870      10.15059376      10.07916641      10.14448452       9.98967838       9.93036842       9.76884174       9.79341125       9.73595333       8.69123840       8.53562069       9.17401123       7.92643690       9.85906410      10.48548317      10.23129749      10.36102104      10.30703068       8.55119991       9.91647053      10.49432468      11.04494095      11.45021915      11.72620010      13.92628193      17.27848816      22.96741676      29.44459152      33.96852493      35.91623688      32.78878021      27.30405045      23.71440697      20.61867714      17.27049828      12.63908482      10.06945419       9.72683811
           9.77172184       9.75110912       9.62649155       9.59614086       9.57927990       9.52997589       9.47850704       9.29636478       9.16284657       9.24800301       9.30112648       9.56427670       9.59671497       9.55003166       9.77662563      10.22176170      10.64391804      10.66576004      10.51051521      10.65777397      10.48519230      10.26656914      10.26083565      10.11913872      10.04982281      10.06457233      10.14893246      10.05619526      10.11870861      10.04919720       9.97300339       9.64525604       9.49677753       9.39427853       9.04797745       8.70534897       9.59143543      10.49035645      10.07594395      10.01295662       9.90168190       9.39898396      10.86101627      12.04873276      14.68284130      16.62668610      16.72473335      21.89636230      22.92358208      24.61079597      29.68890953      38.16705322      40.06906128      37.05887222      32.05837250      27.69023705      24.74846840      21.11726189      15.63082886      11.38451862       9.48555565
           9.87500286       9.78573322       9.66889954       9.61722565       9.62460804       9.58908176       9.56583214       9.50619793       9.49460316       9.58434391       9.73300171       9.55526066       9.45413303       9.09331036       9.54595375      10.01898193      10.46068287      10.42623711      10.40664482      10.45789909      10.33453941      10.32804012      10.31795692      10.21085930      10.22180367      10.19889450      10.08456326      10.05552483      10.01267338       9.92282677       9.99087048       9.63418674       9.43468666       9.77331352       9.50598526       8.52953148       9.93980598      10.34368801      10.15554237      10.23449135       8.97711372      12.03492451      16.92334557      20.07239914      22.31145287      23.58823204      22.63254929      28.41783524      32.45745850      34.91372299      35.37497711      41.79755020      44.19264221      41.62129593      37.35917282      31.80934334      26.60015488      20.56751633      15.41130352      11.51434231       9.38556671
           9.90561008       9.86232185       9.75624943       9.69375515       9.71315193       9.70635319       9.68135643       9.63855553       9.60490036       9.60589886       9.63014221       9.46059704       9.50448036       9.35558891       9.21889782       9.54868793      10.17725468      10.41430855      10.45593166      10.42936611      10.23551846      10.15315723      10.17366409      10.18670750      10.19258404      10.08346844      10.06807327      10.00691509       9.93627357       9.79872322       9.89230442       9.84363651       9.50068283       9.52549934       8.54296780       9.85561752      10.30075645      10.14426041      10.10044670      10.69863224      10.41672134      17.59443283      23.14859772      26.86330986      29.45043755      28.92605591      27.03586006      33.17375565      40.84807205      44.37478256      43.88174057      44.62642670      46.78296280      44.93475342      41.42247009      36.96648788      30.27168465      22.61723709      15.31353283      11.24836445       9.25057888
           9.92060471       9.86533928       9.77952290       9.73462200       9.74216366       9.78950119       9.68101120       9.73568821       9.91629124       9.90433407       9.67367840       9.53775501       9.44155502       9.34544754       9.07168674       9.29491806       9.89452457      10.40671825      10.44006920      10.29700661      10.25048828      10.20543861      10.17145157      10.20615959      10.21784306      10.07550907      10.06619644       9.99446392       9.89128113       9.72156620       9.59067154       9.69659710       9.78460598       9.23399830       9.18590260       9.94685268      10.30234432      10.16755962       9.99493313      11.05311489      13.36291027      18.27488708      22.34947968      26.19308281      29.20235443      29.47277451      29.51255608      38.28533173      47.96859360      50.06277466      49.80767822      48.27827072      48.76642227      46.79713440      43.64294434      40.13729858      33.91384125      26.28748894      17.13114166      10.89133739       9.00412178
           9.87819195       9.86493587       9.80680180       9.72238064       9.81227207       9.83413601       9.74153137       9.74607182       9.87718391       9.94104195       9.81594563       9.60163879       9.50139713       9.50807667       9.25663376       9.01210403       9.67155075      10.26193237      10.29797459      10.18288612      10.22445107      10.20713615      10.20539665      10.23616982      10.19595051      10.05390072      10.00183487       9.91168022       9.88406372       9.54670429       9.22686100       9.78242874       9.65451336       9.43824673       9.59030247      10.23248005      10.40788651      10.17892838      10.21202850      11.21386909      12.86319637      16.11769104      19.62123108      21.95970726      25.60641098      26.59940147      30.62246132      41.77566147      49.31321335      51.99478912      52.83305740      52.18782425      50.70230865      47.22946548      43.87869263      41.11238480      35.31625748      25.25214195      17.58382607      10.42216206       9.57688999
           9.85794830       9.88421249       9.86688328       9.76196194       9.85167885       9.88535500       9.90226555       9.80540657       9.73030090       9.78544140       9.69394398       9.72078419       9.64310837       9.55659866       9.38644600       9.02303982       9.61697292      10.18041420      10.21499348      10.11675072      10.12983227      10.21627998      10.22364140      10.21807671      10.16622257      10.09048653      10.07820034      10.04950047       9.89471531       9.42706585       9.25621891       9.78281116       9.28699207       8.83486271       9.74134541       9.90437794      10.38909245      10.07381916      10.47842598      11.33568001      11.40500355      13.09058380      15.41572666      14.86877441      17.62043762      23.06882477      34.36186218      45.31689453      51.66551590      54.16896820      54.65711212      53.51799393      50.95654678      46.64306259      42.07408905      35.80523682      28.21762848      19.31718636      12.95993137       9.32714748       9.68485641