# File generated by Flopy version 3.9.2 on 06/25/2025 at 12:53:07.
BEGIN options
  READASARRAYS
END options

BEGIN period  1
  recharge
    OPEN/CLOSE  'local1.rcha_recharge.txt'  FACTOR  1.0
END period  1

