# File generated by Flopy version 3.9.3 on 08/21/2025 at 14:53:13.
BEGIN options
END options

BEGIN dimensions
  MAXBOUND  323
END dimensions

BEGIN period  1
    OPEN/CLOSE  'local2.drn_riv_stress_period_data.txt'
END period  1

