# File generated by Flopy version 3.9.3 on 08/21/2025 at 11:29:40.
BEGIN options
  READASARRAYS
END options

BEGIN period  1
  recharge
    OPEN/CLOSE  'local2.rcha_recharge.txt'  FACTOR  1.0
END period  1

