# File generated by Flopy version 3.9.2 on 06/25/2025 at 12:53:07.
BEGIN options
  PRINT_OPTION  all
  COMPLEXITY  complex
END options

