# File generated by Flopy version 3.9.2 on 06/25/2025 at 12:53:07.
BEGIN options
  SAVE_FLOWS
END options

BEGIN packages
  DIS6  local1.dis  dis
  NPF6  local1.npf  npf
  IC6  local1.ic  ic
  RCH6  local1.rcha  rch
  DRN6  local1.drn  drn_r
  CHD6  local1.chd  chd_pw
  CHD6  local1_0.chd  chd_conf
  WEL6  local1.wel  mbr
  WEL6  local1_0.wel  influx
  WEL6  local1_1.wel  outflux
  OC6  local1.oc  oc
END packages

