# File generated by Flopy version 3.9.2 on 06/25/2025 at 12:53:07.
BEGIN options
  BUDGET  FILEOUT  local1.cbc
  HEAD  FILEOUT  local1.hds
END options

BEGIN period  1
  SAVE  HEAD  ALL
  SAVE  BUDGET  ALL
END period  1

