# File generated by Flopy version 3.9.2 on 06/25/2025 at 12:53:07.
BEGIN options
  SAVE_FLOWS
END options

BEGIN dimensions
  MAXBOUND  32
END dimensions

BEGIN period  1
  1 18 44 6.51700020E+00
  1 19 43 6.62300014E+00
  1 20 43 6.71099997E+00
  1 21 42 6.72200012E+00
  1 22 42 6.69999981E+00
  1 23 41 6.80100012E+00
  1 24 41 6.88899994E+00
  1 25 41 6.93900013E+00
  1 26 40 7.35200024E+00
  1 27 40 7.43599987E+00
  1 28 40 7.58599997E+00
  1 29 40 7.67700005E+00
  1 30 40 8.23999977E+00
  1 31 40 8.49300003E+00
  1 32 40 8.47700024E+00
  1 33 41 7.78999996E+00
  1 34 41 7.95300007E+00
  1 35 41 7.96799994E+00
  1 36 41 1.01650000E+01
  1 37 41 1.01199999E+01
  1 38 41 1.02320004E+01
  1 39 42 8.08500004E+00
  1 40 42 8.07299995E+00
  1 41 42 8.11200047E+00
  1 42 42 8.11100006E+00
  1 43 42 8.12600040E+00
  1 44 42 8.10099983E+00
  1 45 42 8.14000034E+00
  1 46 41 8.16800022E+00
  1 47 41 8.19699955E+00
  1 48 41 8.17500019E+00
  1 49 41 8.17800045E+00
END period  1

