# File generated by Flopy version 3.9.3 on 08/21/2025 at 14:53:13.
BEGIN options
END options

BEGIN griddata
  strt  LAYERED
    INTERNAL  FACTOR  1.0
           9.35673046       9.39406013       9.43842983       9.46909046       9.43908978       9.30819035       9.09883022       8.65515995       8.74888992       9.08533001       9.52019024       9.98859978      10.15038967      10.20151043      10.17331028      10.21728039      10.46065044      10.65003014      10.82771969      11.00312042      10.07849026       7.98869991       9.40820026      10.23017025      10.19633007      10.25656033      10.42022038      10.51054001      10.50877953      10.49588013      10.52787971      10.53818989      10.56614017      10.64894962      10.71193027      10.68892956      10.68428993      10.71710014      10.70950985      10.74664974      10.75551033      10.73670959      10.71008015      10.72045040      10.70477009      10.70627975      10.72850037      10.74901962      10.73480988      10.71031952      10.68764019      10.70998955      10.74092007      10.76821995      10.81246948      10.83987999      10.84405994      10.84531021      10.88140011      10.94161987      10.99965000      10.99116993      10.96557045      10.97472954      10.94213009      10.86830997      10.84039974      10.81855965      10.79831028      10.80768013      10.84144020      10.82851028      10.87990952      10.94110012      10.98159027      11.02849007      11.15859985      10.88796043      10.85212994      10.92724037      10.96249008      10.97266960      11.02330017      11.10723972      10.91621017      10.92323017      11.23997974      11.28437042      11.18974018      10.96039963      10.85826969      10.66355991      10.58349037      10.61155033      10.68183994      10.70343018      10.44244003      10.42798042      10.34261990      10.29197979      10.37786961      10.31299019      10.33358002      10.29185009      10.30426025      10.28155994      10.24812984      10.20652008      10.20092964      10.02231026       9.93640995       9.96574020       9.97181034       9.95888042       9.98546028      10.04798985       9.81357002      10.73126984      11.06935024      10.13531017      11.27099037      10.95030975       9.98985958      10.02733994       9.92566967       9.92547989       9.89181042       9.86487007       9.83788967       9.82845020       9.76051044       9.78361034       9.78623962       9.82437992       9.78855991       9.81505966       9.82697964      10.22821999       9.67700005       9.57234001       9.54648972       9.49438000       9.49497032       9.66870022       9.70452976       9.66252995       9.65406036       9.63202000       9.55517960       9.51208019       9.49223042
           9.38105965       9.36019993       9.38356972       9.41882038       9.38164043       9.25496006       9.17630005       9.11085033       8.81980038       8.73239994       9.36546040       9.78445053      10.07693005      10.18264961      10.25057030      10.22080040      10.35394955      10.56198025      10.71617031      10.89360046      10.92722988       8.92856026       8.44120026      10.05191994      10.20209980      10.17265987      10.32645988      10.43389988      10.48017979      10.50401974      10.52114964      10.56081963      10.59801006      10.63368034      10.66460037      10.68869019      10.67776012      10.64762974      10.65307999      10.71920967      10.73196030      10.71162033      10.70392990      10.71759033      10.71580982      10.73186016      10.73256969      10.71290970      10.67580032      10.67661953      10.72264004      10.75154018      10.73186970      10.72439957      10.72943974      10.73816013      10.77439022      10.83574963      10.88642025      10.93379974      10.92646980      10.93871975      10.98023987      10.96123028      10.89939022      10.84302998      10.81818962      10.82162952      10.85599041      10.87913036      10.81021023      10.82641029      10.97146034      11.07328033      11.07758999      10.90915966      10.98937035      11.12061977      10.89404011      10.90705013      10.90559006      10.92763996      10.97949028      10.85727024      10.91839981      10.97457981      11.14814949      11.16341019      11.00302029      10.94814968      10.71875954      10.69085979      10.54936981      10.51764965      10.54496002      10.58123016      10.52690983      10.36357021      10.33780003      10.28085995      10.23974991      10.29386997      10.42854977      10.34337997      10.26243019      10.31488037      10.30331039      10.18566036      10.10188961      10.09049034       9.93023014       9.94071960       9.94651031      10.01224041       9.98577023       9.78322029      10.56134033      11.06126976      10.80101967      10.53472996      11.45425034      10.50123978       9.95020008       9.91561985       9.86448956       9.87915039       9.87168980       9.85643959       9.76251030       9.75492954       9.79277039       9.69087982       9.67714024       9.79605961       9.77076054       9.70938969       9.74897003       9.90799999       9.73536015       9.78540993       9.62584019       9.48284054       9.50938034       9.52674961       9.68731022       9.67232037       9.63300991       9.63329983       9.54069996       9.51739979       9.48017025
           9.37919998       9.38951969       9.39004040       9.34179020       9.24405956       9.11740971       9.07532978       9.10527039       9.11388969       8.84860992       8.75428009       9.52894020       9.92218018      10.10299015      10.19717979      10.16858006      10.20028973      10.44499016      10.60223961      10.77622986      10.96986008      10.37123966       7.91746998       9.42436981      10.35564041      10.16668987      10.22216988      10.32896042      10.45324993      10.54183006      10.53219986      10.54325962      10.56116962      10.59694958      10.67440033      10.66141987      10.61408997      10.59858990      10.66182041      10.69367981      10.68400002      10.69544983      10.70664978      10.72115993      10.73122978      10.69108009      10.67280006      10.67333984      10.66518974      10.68997002      10.72626019      10.71632004      10.68503952      10.65435028      10.66333008      10.69927025      10.75584984      10.80177021      10.84494972      10.86046982      10.88059044      10.93017006      10.94346046      10.89295006      10.85599041      10.85221958      10.84482002      10.85811043      10.84535027      10.78623009      10.80521965      10.96201992      11.00086021      10.98122025      10.87366009      10.95967007      10.79065037      10.94307995      11.12213039      10.97259998      10.92891026      11.02966976      10.93225956      11.18290043      11.16973019      11.08516979      11.17440033      11.15009022      10.95679951      10.80477047      10.61423969      10.57985973      10.57157993      10.51585960      10.47994041      10.48293972      10.47690010      10.57439995      10.29699039      10.28800964      10.35789013      10.48709011      10.38315010      10.24728966      10.23912048      10.24508953      10.31690025      10.22673988      10.12228966      10.10144997       9.94841003       9.93671989       9.96823978       9.98805046       9.79191971      10.44565010      11.05733013      11.04601002      10.08090973      11.65882015      11.15658951      10.00207996       9.99880028       9.81260014       9.83170986       9.84185982       9.80655956       9.75613976       9.74283028       9.73272991       9.71745968       9.56414032       9.55677986       9.71788979       9.74892998       9.66499996       9.68130970       9.65452003       9.63228989       9.72311020       9.70312977       9.60476971       9.44904041       9.45018959       9.59430027       9.67243958       9.68323994       9.60396957       9.52299023       9.50566006       9.43889046
           9.35198021       9.35931015       9.37364960       9.30371952       9.13957024       9.03211021       9.01159954       9.02505016       9.01828957       9.10665989       8.77247047       9.17817020       9.71150017       9.95201969      10.12742043      10.17395973      10.12691021      10.29403019      10.48519993      10.63014030      10.82213974      10.95341015       9.16466999       8.31694984       9.93817043      10.23412991      10.19917965      10.26663017      10.42453957      10.50438976      10.49009037      10.50446987      10.52558041      10.54751968      10.52999020      10.53672028      10.58775997      10.63033009      10.66232014      10.64375019      10.67757034      10.71263981      10.69235039      10.70790958      10.69204044      10.65240955      10.64628983      10.66024971      10.68667030      10.68959999      10.65575027      10.64340973      10.64005947      10.61579990      10.64966965      10.70512962      10.73762035      10.77956963      10.80980015      10.81713009      10.82882977      10.85929966      10.86367989      10.84200001      10.83720016      10.88064003      10.90804005      10.88576031      10.79216003      10.78773975      10.98511028      10.96098995      10.90682983      10.75520992      10.78851032      10.94616032      10.89832020      10.77622032      10.91621017      11.14327049      11.04918003      11.19670010      11.05193996      11.20156002      11.23089981      11.18696022      11.01622963      10.90342999      10.85445023      10.69993019      10.64612007      10.59854984      10.58473015      10.60000992      10.53308964      10.49341011      10.49433041      10.49913979      10.46411037      10.31496048      10.53831005      10.41143990      10.31783962      10.25030041      10.23554993      10.31186962      10.31027031      10.27581024      10.15038967      10.06155968       9.94587040       9.86396980       9.90104008       9.83423042      10.42148972      11.08463001      11.10809994      10.43453979      10.68671989      11.47084045      10.72313976       9.83230019       9.93643951       9.87804031       9.86857033       9.83810043       9.78423977       9.72519016       9.70627022       9.72752953       9.64068031       9.70563030       9.53934002       9.62252998       9.66676998       9.56914043       9.55900002       9.57577991       9.60888958       9.62094021       9.71794987       9.62450027       9.51183033       9.48130035       9.45158005       9.65009022       9.67832947       9.60671997       9.52449989       9.47869968       9.36100960
           9.39729977       9.37456036       9.36763954       9.34947014       9.24508953       9.08236980       8.96798038       8.92496014       8.92315006       9.00599003       9.13473988       8.72535992       9.53209972       9.78730011      10.02140045      10.13934040      10.17117023      10.18113995      10.31632996      10.50617027      10.68614006      10.87580013      10.55766010       8.29319000       8.84348965      10.08501053      10.21590996      10.24903965      10.34961033      10.42842960      10.46249008      10.48882961      10.52023983      10.48027039      10.47819996      10.53209019      10.58638954      10.60682011      10.61406040      10.65118980      10.70030975      10.67490005      10.64657021      10.65849018      10.64019966      10.64291000      10.64756966      10.65581036      10.64573002      10.65281010      10.62294960      10.61952972      10.58792019      10.58778000      10.63490009      10.68426037      10.69917965      10.73826027      10.77099037      10.76511955      10.75531006      10.78507996      10.80644989      10.83022976      10.86660957      10.91407967      10.89667988      10.86122036      10.81363010      10.98171997      10.93334961      10.89114952      10.78847027      10.71732998      10.85410976      10.89957047      10.87207985      10.87746048      10.78203964      10.90692043      11.12584019      11.16687012      11.33275032      11.10713005      11.18062019      11.18404007      10.87973022      10.81875038      10.76391029      10.68101978      10.60453033      10.60620975      10.59401035      10.53610039      10.61876965      10.59496021      10.61968040      10.40622997      10.35286999      10.52873039      10.30967999      10.23748970      10.29148006      10.31227016      10.28528023      10.29854965      10.44495964      10.42066956      10.21864986      10.08094978      10.01891994       9.93544960       9.73375988      10.31898022      11.12553978      11.16518974      10.62755013       9.91228962      11.43472004      11.25212955      10.10344028       9.90742970       9.88222027       9.84165001       9.81422043       9.90513992       9.82236004       9.74234962       9.78413010       9.71916008       9.68990040       9.69211960       9.74524021       9.57952976       9.60931015       9.56579018       9.53934956       9.58821011       9.62571049       9.64591026       9.65602970       9.62285995       9.66613007       9.56733990       9.49802971       9.55132961       9.68350983       9.61668015       9.44976997       9.37934017       9.60054016
           9.47544003       9.44478989       9.42617989       9.41405010       9.38803959       9.30873013       9.21533012       9.11771011       9.01148033       8.99405003       9.08858967       8.78619957       9.44386005       9.70592022       9.94223976      10.09531975      10.20561981      10.20771980      10.20851994      10.36299038      10.55712032      10.76041985      10.89342022       9.92306995       8.06620026       9.43817997      10.36349964      10.29333973      10.33584976      10.41438961      10.45934963      10.49787998      10.46374035      10.48653030      10.48499012      10.49563980      10.55340004      10.58456993      10.62335968      10.65289021      10.61740971      10.61612988      10.61489010      10.60254002      10.59249020      10.61056042      10.64089012      10.62218952      10.59288025      10.61186028      10.62674046      10.60085964      10.56081009      10.56525993      10.61198997      10.62817955      10.65921021      10.66911983      10.67278957      10.67323017      10.71860981      10.72848034      10.75518036      10.80169010      10.90408993      10.91938972      10.87901974      10.89575005      11.00049973      10.89264965      10.84626007      10.80239964      10.80957031      10.80475044      10.81984043      10.80109978      10.82126045      10.81167984      10.84488010      10.78122997      10.88278008      11.13747025      11.03557968      11.02305984      11.15696049      10.95950985      10.75179005      10.75172043      10.70882034      10.59148026      10.60984993      10.69690990      10.61614990      10.70114040      10.83296013      10.85266972      10.58673000      10.42263031      10.54300976      10.35824966      10.29520988      10.26778984      10.22070980      10.28020954      10.25032997      10.36660957      10.29924011      10.85336018      10.23604012      10.16125011      10.04113007       9.86125946      10.22406960      11.15532970      11.21732998      10.64264965      10.21500969      10.44048023      11.47492981      11.01126003      10.11374950       9.91753006       9.91623020       9.81653976       9.74882030       9.74645996       9.82662964       9.86653042       9.76819992       9.64570999       9.71041012       9.72290993       9.81797981       9.55459976       9.65139961       9.62172985       9.57713032       9.59838963       9.58745956       9.68511963       9.84257984       9.64626026       9.67420959       9.54522991       9.45160961       9.48653984       9.53069973       9.42391014       9.66306019       9.76613045       9.60291004
           9.51422977       9.51661968       9.52507973       9.53347015       9.51762009       9.47465992       9.41145992       9.32937050       9.21490002       9.03380013       8.81822014       8.83854961       9.47574043       9.64148045       9.82028961      10.03472996      10.17646027      10.24110031      10.18056965      10.26957035      10.43686962      10.58870029      10.75006962      10.77744961       8.99615002       8.47360992       9.93842030      10.41213989      10.39601040      10.40476990      10.44583988      10.47138023      10.47924042      10.49263000      10.48359966      10.48993015      10.53744030      10.57009983      10.60579967      10.60251045      10.60873985      10.57730007      10.55354977      10.53695011      10.56809044      10.57635975      10.58720016      10.59640980      10.59405041      10.60241032      10.57151031      10.59119034      10.58463955      10.56437969      10.55690002      10.59259033      10.62685013      10.60392952      10.61365986      10.65009022      10.65528011      10.67055988      10.72352982      10.80712986      10.87374973      10.89044952      10.99672985      11.04601002      10.95209980      10.84220982      10.78853989      10.79319000      10.81941032      10.78530025      10.81669044      10.78962994      10.72309017      10.73651028      10.80673981      10.87473011      10.77740955      10.87111950      11.15485001      11.06122017      11.02305984      10.88671970      10.78547001      10.74711990      10.66658020      10.62738991      10.82071018      10.80941963      10.77976990      10.87847042      10.88014984      10.91862011      10.65497971      10.48999977      10.40281963      10.33858967      10.30784988      10.32215977      10.21994019      10.20396042      10.26021957      10.22062969      10.21739006      10.23509979      10.70302010      10.32161045       9.99923038      10.21362972      11.19995022      11.27803040      10.69316959      10.39313030       9.91178989      11.92934990      11.59234047      10.45106983      10.04545975       9.87022018       9.86659050       9.80053997       9.77523041       9.72399998       9.72679043       9.72237968       9.75259018       9.67166042       9.69431019       9.74569988       9.73313999       9.72716045       9.62267971       9.62629986       9.59230995       9.54471970       9.59434986       9.66063023       9.68354988       9.68737984       9.63018036       9.50187016       9.39422989       9.46012020       9.79549980       9.77591991       9.61789036       9.54489994       9.48577976
           9.49752998       9.49619961       9.51056957       9.52077007       9.51025009       9.51978016       9.50823975       9.44631958       9.36536980       9.23322010       8.88718987       8.69748020       9.43713951       9.58205986       9.78334999      10.00448036      10.11954021      10.21339989      10.20975971      10.21899033      10.31964970      10.40386009      10.48742008      10.63053036      10.37971973       8.06501961       8.75300980      10.27357006      10.38274002      10.28384972      10.31702995      10.44180012      10.49001980      10.47912979      10.49361038      10.50341988      10.50763035      10.53077030      10.58629036      10.63902950      10.62732029      10.53439999      10.51051044      10.54063988      10.55605030      10.53195000      10.54656029      10.58061981      10.60274029      10.55076027      10.54207993      10.58545017      10.59943008      10.54333973      10.52348042      10.55222988      10.54623032      10.57236004      10.59883976      10.60149956      10.59657001      10.66153049      10.74100018      10.76708984      10.81711006      11.04940033      11.08547020      10.99582958      10.88024998      10.83856964      10.80768013      10.82929993      10.83590984      10.78952026      10.77033997      10.71833038      10.69322968      10.73676014      10.77950001      10.83481026      10.88484955      10.78196049      10.86631966      11.15839958      11.07164001      11.02758026      10.85375023      10.80860996      10.77999973      10.75844002      10.87193012      10.87228966      10.87034035      10.88609028      11.03592968      10.78225040      10.75226974      10.67584991      10.63838959      10.38698959      10.37386036      10.37219048      10.37858009      10.29520988      10.24263000      10.22986031      10.20514011      10.21175003      10.32538986      10.47741985      10.02919960      11.20436001      11.33467960      10.83765030      10.60031033      10.02738953      11.11394978      11.99569988      11.16773987       9.92728043       9.87220955       9.79232025       9.82857037       9.89879990       9.71716022       9.72815037       9.72404003       9.77258968       9.71263027       9.72426033       9.79802036       9.70221043       9.74779034       9.80508041       9.64311981       9.60702038       9.49440956       9.50656986       9.59024048       9.63770962       9.60846996       9.60336018       9.58677959       9.48118973       9.72233963       9.76926994       9.59132957       9.48198986       9.41726017       9.42914009       9.37187958
           9.52651978       9.49637032       9.51331043       9.53085041       9.53917027       9.51554966       9.51603031       9.58137989       9.53936958       9.34893990       9.02630043       8.66057014       9.53559017       9.66648960       9.83716965      10.02845001      10.16265965      10.23812962      10.28108025      10.27882004      10.26482964      10.27460003      10.33428001      10.41689014      10.58127022       9.74369049       7.60265017       9.18647957      10.46652031      10.35272026      10.34502983      10.40326977      10.44758034      10.46848011      10.42986965      10.41394997      10.48536015      10.54481030      10.58395004      10.62924957      10.60359955      10.55657005      10.56287956      10.57487965      10.55669975      10.54127979      10.53705978      10.57384014      10.57750988      10.56680012      10.58146000      10.55978966      10.56122017      10.53302956      10.52276993      10.48735046      10.48694038      10.53081989      10.56927967      10.59313011      10.63125038      10.68970966      10.67922974      10.72504044      10.99131012      11.08714008      10.98939037      10.92074966      10.89805984      10.82242966      10.81318951      10.82637978      10.82744026      10.70691967      10.67650986      10.72052956      10.73540974      10.72004986      10.75026035      10.80906963      10.79082966      10.83304024      10.85968018      10.97379017      11.12368011      11.05900002      10.92930031      10.86579037      11.08201027      10.78419971      10.86180973      10.92850018      10.73198986      10.55309010      10.83360958      10.86637974      10.67203045      10.72548962      10.59729958      10.50592041      10.40104008      10.42131042      10.43134975      10.29259014      10.27670002      10.33988953      10.32901955      10.32744980      10.41598988      10.12536049      11.16606045      11.39908028      10.99024963      10.42453003      10.44034958      10.45952988      11.91473007      11.71372986      10.88422012       9.69583988       9.86310005       9.83868980       9.88294029      10.14923000       9.76622963       9.79376030       9.77491951       9.75092030       9.76194954       9.77966976       9.76636982       9.69624043       9.72770023       9.71782017       9.71148014       9.66312027       9.62623024       9.51889038       9.53184986       9.61019039       9.56000996       9.62967014       9.90742016       9.77256966       9.54111958       9.44417953       9.38389015       9.31719017       9.27206993       9.36974049       9.34309006
           9.53112984       9.48855019       9.51469040       9.57186031       9.60453033       9.59276962       9.54794025       9.47354031       9.39507961       9.39443016       8.93554020       8.61649990       9.45740032       9.65962029       9.78555965       9.80251980       9.86209011       9.65452003      10.13934994      10.40017033      10.39941978      10.35569000      10.36073971      10.35076046      10.38179970      10.68770027       8.97189999       7.85403013      10.22638988      10.48879051      10.45209026      10.42973995      10.45304966      10.41911983      10.38698959      10.43212032      10.52878952      10.51998043      10.48775005      10.53748035      10.60805988      10.63659954      10.63308048      10.59862995      10.55037022      10.51745987      10.55840015      10.56005001      10.57874012      10.63654041      10.53184032      10.50201035      10.53423977      10.53719997      10.52159977      10.47379017      10.47994041      10.49862957      10.55755997      10.64373970      10.65435028      10.64494038      10.70586014      11.00564957      11.01161957      10.92846966      10.91119003      10.88109016      10.88366985      10.86081028      10.82040977      10.80632019      10.76809025      10.63663006      10.65042019      10.71428967      10.72243023      10.74137020      10.75078964      10.77171040      10.73176003      10.75290966      10.82542992      10.83053017      10.98445988      11.06252956      10.99297047      10.91296005      11.31917000      10.90789032      10.72474003      10.69458008      10.62135983      10.54967022      10.57491970      11.11629009      11.22379971      10.87677956      10.77593040      10.65345001      10.48521996      10.41322041      10.33862019      10.33695984      10.30657005      10.34206009      10.33582020      10.48429966      10.11830997      11.10365009      11.47445965      11.10015965      10.67848015      10.56052971      10.16444016      12.10239029      12.35916042      11.56433964      10.23038960       9.64704990       9.66835976       9.73534012       9.80082989       9.82868958       9.84667015       9.78024006       9.78059006       9.80288982       9.79026985       9.70069981       9.66911983       9.65071011       9.60157013       9.71697044       9.72729015       9.66098976       9.62016964       9.63185978       9.58199024       9.64939976       9.89070988       9.88134956       9.64503002       9.52597046       9.44309998       9.32244015       9.13632011       9.00174046       9.00885963       9.19746971       9.33172989
           9.50691986       9.43962002       9.47636986       9.54955006       9.59344006       9.58860016       9.53112984       9.45491028       9.31002998       9.20250034       9.14186001       8.90557003       9.08506966       9.70170021       9.43906975       8.58728027       8.73190022       9.12528992       9.97002983      10.39136982      10.35291004      10.31795025      10.31229019      10.34092999      10.48396015      10.76385975      10.19855976       8.06042957       9.12609005      10.37195969      10.48283005      10.49701977      10.51957989      10.47426987      10.46148968      10.51041031      10.53382969      10.51021957      10.47850037      10.53271961      10.61382008      10.67918968      10.64958954      10.58440971      10.52476978      10.55257988      10.57833958      10.57851028      10.63004017      10.62936020      10.56076050      10.50776005      10.52795982      10.52735043      10.47167969      10.44414043      10.47428989      10.49627018      10.57285023      10.57999992      10.57882977      10.67975998      10.93159962      10.94577980      10.89159012      10.86948967      10.83917046      10.87119007      10.89482021      10.91294956      10.83957005      10.76342010      10.66238022      10.63317966      10.72772980      10.78065014      10.79780006      10.78382969      10.81474018      10.74497986      10.71613979      10.78822994      10.76325989      10.62693977      10.72072029      10.84720039      11.02200985      10.99302006      11.03499031      10.72319031      10.71240997      10.77536964      10.84848022      10.67609978      10.72916031      11.27990055      11.55628014      10.99149990      10.85323048      10.76677036      10.68538952      10.49248028      10.42936993      10.34757042      10.28752041      10.37370014      10.46238995      10.22813034      10.94062996      11.54539967      11.22704983      10.63951015      10.87728977      10.19822979      11.16963005      12.22649956      12.47031975      11.20357037       9.78096962       9.78798008       9.66018009       9.58308983       9.70905972       9.74680042       9.72422981       9.69783020       9.67072964       9.67702961       9.61526012       9.61820030       9.60309029       9.63269043       9.57762051       9.66994953       9.68212032       9.69814968       9.57981014       9.66469002       9.88216972       9.84634018       9.74594021       9.60737991       9.55095959       9.50189018       9.33450985       9.06667042       8.81437969       8.61748028       8.72362995       8.88881969       9.09263039