pcf
* control data
             restart          estimation
     12323         0        32         0         0
        32         0              single               point         1
   2.000000E+01  -3.000000E+00   3.000000E-01   1.000000E-02        -7
   1.000000E+01   1.000000E+01   1.000000E-03
   1.000000E-01
         0   1.000000E-02         3         3   1.000000E-02         3
         0         0         0
* singular value decomposition
         1
  10000000    1.000000E-06
1
* parameter groups
chd_conf_headgr        relative              1.0000000000E-02      0.0 switch                2.0000000000E+00      parabolic             1.0000000000E-05      5.0000000000E-01      smaller              
mbr_cond_condgr        relative              1.0000000000E-02      0.0 switch                2.0000000000E+00      parabolic             1.0000000000E-05      5.0000000000E-01      smaller              
influx_cond_condgr     relative              1.0000000000E-02      0.0 switch                2.0000000000E+00      parabolic             1.0000000000E-05      5.0000000000E-01      smaller              
outflux_cond_condgr    relative              1.0000000000E-02      0.0 switch                2.0000000000E+00      parabolic             1.0000000000E-05      5.0000000000E-01      smaller              
drn_riv_cond_headgr    relative              1.0000000000E-02      0.0 switch                2.0000000000E+00      parabolic             1.0000000000E-05      5.0000000000E-01      smaller              
drn_riv_condgr         relative              1.0000000000E-02      0.0 switch                2.0000000000E+00      parabolic             1.0000000000E-05      5.0000000000E-01      smaller              
npfklayer1pp           relative              1.0000000000E-02      0.0 switch                2.0000000000E+00      parabolic             1.0000000000E-05      5.0000000000E-01      smaller              
npfklayer2pp           relative              1.0000000000E-02      0.0 switch                2.0000000000E+00      parabolic             1.0000000000E-05      5.0000000000E-01      smaller              
npfklayer6pp           relative              1.0000000000E-02      0.0 switch                2.0000000000E+00      parabolic             1.0000000000E-05      5.0000000000E-01      smaller              
rcharechargepp         relative              1.0000000000E-02      0.0 switch                2.0000000000E+00      parabolic             1.0000000000E-05      5.0000000000E-01      smaller              
npfklayer4pp           relative              1.0000000000E-02      0.0 switch                2.0000000000E+00      parabolic             1.0000000000E-05      5.0000000000E-01      smaller              
npfklayer3pp           relative              1.0000000000E-02      0.0 switch                2.0000000000E+00      parabolic             1.0000000000E-05      5.0000000000E-01      smaller              
npfklayer5pp           relative              1.0000000000E-02      0.0 switch                2.0000000000E+00      parabolic             1.0000000000E-05      5.0000000000E-01      smaller              
npfklayer7pp           relative              1.0000000000E-02      0.0 switch                2.0000000000E+00      parabolic             1.0000000000E-05      5.0000000000E-01      smaller              
chd_pw_headgr          relative              1.0000000000E-02      0.0 switch                2.0000000000E+00      parabolic             1.0000000000E-05      5.0000000000E-01      smaller              
npfklayer8pp           relative              1.0000000000E-02      0.0 switch                2.0000000000E+00      parabolic             1.0000000000E-05      5.0000000000E-01      smaller              
npfklayer8cn           relative              1.0000000000E-02      0.0 switch                2.0000000000E+00      parabolic             1.0000000000E-05      5.0000000000E-01      smaller              
npfklayer7cn           relative              1.0000000000E-02      0.0 switch                2.0000000000E+00      parabolic             1.0000000000E-05      5.0000000000E-01      smaller              
npfklayer5cn           relative              1.0000000000E-02      0.0 switch                2.0000000000E+00      parabolic             1.0000000000E-05      5.0000000000E-01      smaller              
npfklayer6cn           relative              1.0000000000E-02      0.0 switch                2.0000000000E+00      parabolic             1.0000000000E-05      5.0000000000E-01      smaller              
npfklayer2cn           relative              1.0000000000E-02      0.0 switch                2.0000000000E+00      parabolic             1.0000000000E-05      5.0000000000E-01      smaller              
npfklayer1cn           relative              1.0000000000E-02      0.0 switch                2.0000000000E+00      parabolic             1.0000000000E-05      5.0000000000E-01      smaller              
npfklayer3cn           relative              1.0000000000E-02      0.0 switch                2.0000000000E+00      parabolic             1.0000000000E-05      5.0000000000E-01      smaller              
npfklayer4cn           relative              1.0000000000E-02      0.0 switch                2.0000000000E+00      parabolic             1.0000000000E-05      5.0000000000E-01      smaller              
outflux_cond_condcn    relative              1.0000000000E-02      0.0 switch                2.0000000000E+00      parabolic             1.0000000000E-05      5.0000000000E-01      smaller              
influx_cond_condcn     relative              1.0000000000E-02      0.0 switch                2.0000000000E+00      parabolic             1.0000000000E-05      5.0000000000E-01      smaller              
rcharechargecn         relative              1.0000000000E-02      0.0 switch                2.0000000000E+00      parabolic             1.0000000000E-05      5.0000000000E-01      smaller              
mbr_cond_condcn        relative              1.0000000000E-02      0.0 switch                2.0000000000E+00      parabolic             1.0000000000E-05      5.0000000000E-01      smaller              
drn_riv_cond_headcn    relative              1.0000000000E-02      0.0 switch                2.0000000000E+00      parabolic             1.0000000000E-05      5.0000000000E-01      smaller              
drn_riv_condcn         relative              1.0000000000E-02      0.0 switch                2.0000000000E+00      parabolic             1.0000000000E-05      5.0000000000E-01      smaller              
chd_pw_headcn          relative              1.0000000000E-02      0.0 switch                2.0000000000E+00      parabolic             1.0000000000E-05      5.0000000000E-01      smaller              
chd_conf_headcn        relative              1.0000000000E-02      0.0 switch                2.0000000000E+00      parabolic             1.0000000000E-05      5.0000000000E-01      smaller              
* parameter data
                        pname:npfklayer1pp_inst:0_ptype:pp_pstyle:m_i:5_j:55_zone:1  log                   factor                1.0000000000E+00      1.0000000000E-02      1.0000000000E+02      npfklayer1pp          1.0000000000E+00      0.0000000000E+00      1          
                        pname:npfklayer1pp_inst:0_ptype:pp_pstyle:m_i:5_j:65_zone:1  log                   factor                1.0000000000E+00      1.0000000000E-02      1.0000000000E+02      npfklayer1pp          1.0000000000E+00      0.0000000000E+00      1          
                        pname:npfklayer1pp_inst:0_ptype:pp_pstyle:m_i:5_j:75_zone:1  log                   factor                1.0000000000E+00      1.0000000000E-02      1.0000000000E+02      npfklayer1pp          1.0000000000E+00      0.0000000000E+00      1          
                        pname:npfklayer1pp_inst:0_ptype:pp_pstyle:m_i:5_j:85_zone:1  log                   factor                1.0000000000E+00      1.0000000000E-02      1.0000000000E+02      npfklayer1pp          1.0000000000E+00      0.0000000000E+00      1          
                        pname:npfklayer1pp_inst:0_ptype:pp_pstyle:m_i:5_j:95_zone:1  log                   factor                1.0000000000E+00      1.0000000000E-02      1.0000000000E+02      npfklayer1pp          1.0000000000E+00      0.0000000000E+00      1          
                       pname:npfklayer1pp_inst:0_ptype:pp_pstyle:m_i:5_j:105_zone:1  log                   factor                1.0000000000E+00      1.0000000000E-02      1.0000000000E+02      npfklayer1pp          1.0000000000E+00      0.0000000000E+00      1          
                       pname:npfklayer1pp_inst:0_ptype:pp_pstyle:m_i:5_j:115_zone:1  log                   factor                1.0000000000E+00      1.0000000000E-02      1.0000000000E+02      npfklayer1pp          1.0000000000E+00      0.0000000000E+00      1          
                       pname:npfklayer1pp_inst:0_ptype:pp_pstyle:m_i:5_j:125_zone:1  log                   factor                1.0000000000E+00      1.0000000000E-02      1.0000000000E+02      npfklayer1pp          1.0000000000E+00      0.0000000000E+00      1          
                       pname:npfklayer1pp_inst:0_ptype:pp_pstyle:m_i:5_j:135_zone:1  log                   factor                1.0000000000E+00      1.0000000000E-02      1.0000000000E+02      npfklayer1pp          1.0000000000E+00      0.0000000000E+00      1          
                       pname:npfklayer1pp_inst:0_ptype:pp_pstyle:m_i:5_j:145_zone:1  log                   factor                1.0000000000E+00      1.0000000000E-02      1.0000000000E+02      npfklayer1pp          1.0000000000E+00      0.0000000000E+00      1          
                       pname:npfklayer1pp_inst:0_ptype:pp_pstyle:m_i:15_j:45_zone:1  log                   factor                1.0000000000E+00      1.0000000000E-02      1.0000000000E+02      npfklayer1pp          1.0000000000E+00      0.0000000000E+00      1          
                       pname:npfklayer1pp_inst:0_ptype:pp_pstyle:m_i:15_j:55_zone:1  log                   factor                1.0000000000E+00      1.0000000000E-02      1.0000000000E+02      npfklayer1pp          1.0000000000E+00      0.0000000000E+00      1          
                       pname:npfklayer1pp_inst:0_ptype:pp_pstyle:m_i:15_j:65_zone:1  log                   factor                1.0000000000E+00      1.0000000000E-02      1.0000000000E+02      npfklayer1pp          1.0000000000E+00      0.0000000000E+00      1          
                       pname:npfklayer1pp_inst:0_ptype:pp_pstyle:m_i:15_j:75_zone:1  log                   factor                1.0000000000E+00      1.0000000000E-02      1.0000000000E+02      npfklayer1pp          1.0000000000E+00      0.0000000000E+00      1          
                       pname:npfklayer1pp_inst:0_ptype:pp_pstyle:m_i:15_j:85_zone:1  log                   factor                1.0000000000E+00      1.0000000000E-02      1.0000000000E+02      npfklayer1pp          1.0000000000E+00      0.0000000000E+00      1          
                       pname:npfklayer1pp_inst:0_ptype:pp_pstyle:m_i:15_j:95_zone:1  log                   factor                1.0000000000E+00      1.0000000000E-02      1.0000000000E+02      npfklayer1pp          1.0000000000E+00      0.0000000000E+00      1          
                      pname:npfklayer1pp_inst:0_ptype:pp_pstyle:m_i:15_j:105_zone:1  log                   factor                1.0000000000E+00      1.0000000000E-02      1.0000000000E+02      npfklayer1pp          1.0000000000E+00      0.0000000000E+00      1          
                      pname:npfklayer1pp_inst:0_ptype:pp_pstyle:m_i:15_j:115_zone:1  log                   factor                1.0000000000E+00      1.0000000000E-02      1.0000000000E+02      npfklayer1pp          1.0000000000E+00      0.0000000000E+00      1          
                      pname:npfklayer1pp_inst:0_ptype:pp_pstyle:m_i:15_j:125_zone:1  log                   factor                1.0000000000E+00      1.0000000000E-02      1.0000000000E+02      npfklayer1pp          1.0000000000E+00      0.0000000000E+00      1          
                      pname:npfklayer1pp_inst:0_ptype:pp_pstyle:m_i:15_j:135_zone:1  log                   factor                1.0000000000E+00      1.0000000000E-02      1.0000000000E+02      npfklayer1pp          1.0000000000E+00      0.0000000000E+00      1          
                      pname:npfklayer1pp_inst:0_ptype:pp_pstyle:m_i:15_j:145_zone:1  log                   factor                1.0000000000E+00      1.0000000000E-02      1.0000000000E+02      npfklayer1pp          1.0000000000E+00      0.0000000000E+00      1          
                       pname:npfklayer1pp_inst:0_ptype:pp_pstyle:m_i:25_j:25_zone:1  log                   factor                1.0000000000E+00      1.0000000000E-02      1.0000000000E+02      npfklayer1pp          1.0000000000E+00      0.0000000000E+00      1          
                       pname:npfklayer1pp_inst:0_ptype:pp_pstyle:m_i:25_j:35_zone:1  log                   factor                1.0000000000E+00      1.0000000000E-02      1.0000000000E+02      npfklayer1pp          1.0000000000E+00      0.0000000000E+00      1          
                       pname:npfklayer1pp_inst:0_ptype:pp_pstyle:m_i:25_j:45_zone:1  log                   factor                1.0000000000E+00      1.0000000000E-02      1.0000000000E+02      npfklayer1pp          1.0000000000E+00      0.0000000000E+00      1          
                       pname:npfklayer1pp_inst:0_ptype:pp_pstyle:m_i:25_j:55_zone:1  log                   factor                1.0000000000E+00      1.0000000000E-02      1.0000000000E+02      npfklayer1pp          1.0000000000E+00      0.0000000000E+00      1          
                       pname:npfklayer1pp_inst:0_ptype:pp_pstyle:m_i:25_j:65_zone:1  log                   factor                1.0000000000E+00      1.0000000000E-02      1.0000000000E+02      npfklayer1pp          1.0000000000E+00      0.0000000000E+00      1          
                       pname:npfklayer1pp_inst:0_ptype:pp_pstyle:m_i:25_j:75_zone:1  log                   factor                1.0000000000E+00      1.0000000000E-02      1.0000000000E+02      npfklayer1pp          1.0000000000E+00      0.0000000000E+00      1          
                       pname:npfklayer1pp_inst:0_ptype:pp_pstyle:m_i:25_j:85_zone:1  log                   factor                1.0000000000E+00      1.0000000000E-02      1.0000000000E+02      npfklayer1pp          1.0000000000E+00      0.0000000000E+00      1          
                       pname:npfklayer1pp_inst:0_ptype:pp_pstyle:m_i:25_j:95_zone:1  log                   factor                1.0000000000E+00      1.0000000000E-02      1.0000000000E+02      npfklayer1pp          1.0000000000E+00      0.0000000000E+00      1          
                      pname:npfklayer1pp_inst:0_ptype:pp_pstyle:m_i:25_j:105_zone:1  log                   factor                1.0000000000E+00      1.0000000000E-02      1.0000000000E+02      npfklayer1pp          1.0000000000E+00      0.0000000000E+00      1          
                      pname:npfklayer1pp_inst:0_ptype:pp_pstyle:m_i:25_j:115_zone:1  log                   factor                1.0000000000E+00      1.0000000000E-02      1.0000000000E+02      npfklayer1pp          1.0000000000E+00      0.0000000000E+00      1          
                      pname:npfklayer1pp_inst:0_ptype:pp_pstyle:m_i:25_j:125_zone:1  log                   factor                1.0000000000E+00      1.0000000000E-02      1.0000000000E+02      npfklayer1pp          1.0000000000E+00      0.0000000000E+00      1          
                      pname:npfklayer1pp_inst:0_ptype:pp_pstyle:m_i:25_j:135_zone:1  log                   factor                1.0000000000E+00      1.0000000000E-02      1.0000000000E+02      npfklayer1pp          1.0000000000E+00      0.0000000000E+00      1          
                      pname:npfklayer1pp_inst:0_ptype:pp_pstyle:m_i:25_j:145_zone:1  log                   factor                1.0000000000E+00      1.0000000000E-02      1.0000000000E+02      npfklayer1pp          1.0000000000E+00      0.0000000000E+00      1          
                       pname:npfklayer1pp_inst:0_ptype:pp_pstyle:m_i:35_j:25_zone:1  log                   factor                1.0000000000E+00      1.0000000000E-02      1.0000000000E+02      npfklayer1pp          1.0000000000E+00      0.0000000000E+00      1          
                       pname:npfklayer1pp_inst:0_ptype:pp_pstyle:m_i:35_j:35_zone:1  log                   factor                1.0000000000E+00      1.0000000000E-02      1.0000000000E+02      npfklayer1pp          1.0000000000E+00      0.0000000000E+00      1          
                       pname:npfklayer1pp_inst:0_ptype:pp_pstyle:m_i:35_j:45_zone:1  log                   factor                1.0000000000E+00      1.0000000000E-02      1.0000000000E+02      npfklayer1pp          1.0000000000E+00      0.0000000000E+00      1          
                       pname:npfklayer1pp_inst:0_ptype:pp_pstyle:m_i:35_j:55_zone:1  log                   factor                1.0000000000E+00      1.0000000000E-02      1.0000000000E+02      npfklayer1pp          1.0000000000E+00      0.0000000000E+00      1          
                       pname:npfklayer1pp_inst:0_ptype:pp_pstyle:m_i:35_j:65_zone:1  log                   factor                1.0000000000E+00      1.0000000000E-02      1.0000000000E+02      npfklayer1pp          1.0000000000E+00      0.0000000000E+00      1          
                       pname:npfklayer1pp_inst:0_ptype:pp_pstyle:m_i:35_j:75_zone:1  log                   factor                1.0000000000E+00      1.0000000000E-02      1.0000000000E+02      npfklayer1pp          1.0000000000E+00      0.0000000000E+00      1          
                       pname:npfklayer1pp_inst:0_ptype:pp_pstyle:m_i:35_j:85_zone:1  log                   factor                1.0000000000E+00      1.0000000000E-02      1.0000000000E+02      npfklayer1pp          1.0000000000E+00      0.0000000000E+00      1          
                       pname:npfklayer1pp_inst:0_ptype:pp_pstyle:m_i:35_j:95_zone:1  log                   factor                1.0000000000E+00      1.0000000000E-02      1.0000000000E+02      npfklayer1pp          1.0000000000E+00      0.0000000000E+00      1          
                      pname:npfklayer1pp_inst:0_ptype:pp_pstyle:m_i:35_j:105_zone:1  log                   factor                1.0000000000E+00      1.0000000000E-02      1.0000000000E+02      npfklayer1pp          1.0000000000E+00      0.0000000000E+00      1          
                      pname:npfklayer1pp_inst:0_ptype:pp_pstyle:m_i:35_j:115_zone:1  log                   factor                1.0000000000E+00      1.0000000000E-02      1.0000000000E+02      npfklayer1pp          1.0000000000E+00      0.0000000000E+00      1          
                      pname:npfklayer1pp_inst:0_ptype:pp_pstyle:m_i:35_j:125_zone:1  log                   factor                1.0000000000E+00      1.0000000000E-02      1.0000000000E+02      npfklayer1pp          1.0000000000E+00      0.0000000000E+00      1          
                      pname:npfklayer1pp_inst:0_ptype:pp_pstyle:m_i:35_j:135_zone:1  log                   factor                1.0000000000E+00      1.0000000000E-02      1.0000000000E+02      npfklayer1pp          1.0000000000E+00      0.0000000000E+00      1          
                      pname:npfklayer1pp_inst:0_ptype:pp_pstyle:m_i:35_j:145_zone:1  log                   factor                1.0000000000E+00      1.0000000000E-02      1.0000000000E+02      npfklayer1pp          1.0000000000E+00      0.0000000000E+00      1          
                       pname:npfklayer1pp_inst:0_ptype:pp_pstyle:m_i:45_j:15_zone:1  log                   factor                1.0000000000E+00      1.0000000000E-02      1.0000000000E+02      npfklayer1pp          1.0000000000E+00      0.0000000000E+00      1          
                       pname:npfklayer1pp_inst:0_ptype:pp_pstyle:m_i:45_j:25_zone:1  log                   factor                1.0000000000E+00      1.0000000000E-02      1.0000000000E+02      npfklayer1pp          1.0000000000E+00      0.0000000000E+00      1          
                       pname:npfklayer1pp_inst:0_ptype:pp_pstyle:m_i:45_j:35_zone:1  log                   factor                1.0000000000E+00      1.0000000000E-02      1.0000000000E+02      npfklayer1pp          1.0000000000E+00      0.0000000000E+00      1          
                       pname:npfklayer1pp_inst:0_ptype:pp_pstyle:m_i:45_j:45_zone:1  log                   factor                1.0000000000E+00      1.0000000000E-02      1.0000000000E+02      npfklayer1pp          1.0000000000E+00      0.0000000000E+00      1          
                       pname:npfklayer1pp_inst:0_ptype:pp_pstyle:m_i:45_j:55_zone:1  log                   factor                1.0000000000E+00      1.0000000000E-02      1.0000000000E+02      npfklayer1pp          1.0000000000E+00      0.0000000000E+00      1          
                       pname:npfklayer1pp_inst:0_ptype:pp_pstyle:m_i:45_j:65_zone:1  log                   factor                1.0000000000E+00      1.0000000000E-02      1.0000000000E+02      npfklayer1pp          1.0000000000E+00      0.0000000000E+00      1          
                       pname:npfklayer1pp_inst:0_ptype:pp_pstyle:m_i:45_j:75_zone:1  log                   factor                1.0000000000E+00      1.0000000000E-02      1.0000000000E+02      npfklayer1pp          1.0000000000E+00      0.0000000000E+00      1          
                       pname:npfklayer1pp_inst:0_ptype:pp_pstyle:m_i:45_j:85_zone:1  log                   factor                1.0000000000E+00      1.0000000000E-02      1.0000000000E+02      npfklayer1pp          1.0000000000E+00      0.0000000000E+00      1          
                       pname:npfklayer1pp_inst:0_ptype:pp_pstyle:m_i:45_j:95_zone:1  log                   factor                1.0000000000E+00      1.0000000000E-02      1.0000000000E+02      npfklayer1pp          1.0000000000E+00      0.0000000000E+00      1          
                      pname:npfklayer1pp_inst:0_ptype:pp_pstyle:m_i:45_j:105_zone:1  log                   factor                1.0000000000E+00      1.0000000000E-02      1.0000000000E+02      npfklayer1pp          1.0000000000E+00      0.0000000000E+00      1          
                      pname:npfklayer1pp_inst:0_ptype:pp_pstyle:m_i:45_j:145_zone:1  log                   factor                1.0000000000E+00      1.0000000000E-02      1.0000000000E+02      npfklayer1pp          1.0000000000E+00      0.0000000000E+00      1          
                       pname:npfklayer1pp_inst:0_ptype:pp_pstyle:m_i:55_j:15_zone:1  log                   factor                1.0000000000E+00      1.0000000000E-02      1.0000000000E+02      npfklayer1pp          1.0000000000E+00      0.0000000000E+00      1          
                       pname:npfklayer1pp_inst:0_ptype:pp_pstyle:m_i:55_j:25_zone:1  log                   factor                1.0000000000E+00      1.0000000000E-02      1.0000000000E+02      npfklayer1pp          1.0000000000E+00      0.0000000000E+00      1          
                       pname:npfklayer1pp_inst:0_ptype:pp_pstyle:m_i:55_j:35_zone:1  log                   factor                1.0000000000E+00      1.0000000000E-02      1.0000000000E+02      npfklayer1pp          1.0000000000E+00      0.0000000000E+00      1          
                       pname:npfklayer1pp_inst:0_ptype:pp_pstyle:m_i:55_j:45_zone:1  log                   factor                1.0000000000E+00      1.0000000000E-02      1.0000000000E+02      npfklayer1pp          1.0000000000E+00      0.0000000000E+00      1          
                       pname:npfklayer1pp_inst:0_ptype:pp_pstyle:m_i:55_j:55_zone:1  log                   factor                1.0000000000E+00      1.0000000000E-02      1.0000000000E+02      npfklayer1pp          1.0000000000E+00      0.0000000000E+00      1          
                       pname:npfklayer1pp_inst:0_ptype:pp_pstyle:m_i:55_j:65_zone:1  log                   factor                1.0000000000E+00      1.0000000000E-02      1.0000000000E+02      npfklayer1pp          1.0000000000E+00      0.0000000000E+00      1          
                       pname:npfklayer1pp_inst:0_ptype:pp_pstyle:m_i:55_j:75_zone:1  log                   factor                1.0000000000E+00      1.0000000000E-02      1.0000000000E+02      npfklayer1pp          1.0000000000E+00      0.0000000000E+00      1          
                       pname:npfklayer1pp_inst:0_ptype:pp_pstyle:m_i:55_j:85_zone:1  log                   factor                1.0000000000E+00      1.0000000000E-02      1.0000000000E+02      npfklayer1pp          1.0000000000E+00      0.0000000000E+00      1          
                       pname:npfklayer1pp_inst:0_ptype:pp_pstyle:m_i:55_j:95_zone:1  log                   factor                1.0000000000E+00      1.0000000000E-02      1.0000000000E+02      npfklayer1pp          1.0000000000E+00      0.0000000000E+00      1          
                        pname:npfklayer1pp_inst:0_ptype:pp_pstyle:m_i:65_j:5_zone:1  log                   factor                1.0000000000E+00      1.0000000000E-02      1.0000000000E+02      npfklayer1pp          1.0000000000E+00      0.0000000000E+00      1          
                       pname:npfklayer1pp_inst:0_ptype:pp_pstyle:m_i:65_j:15_zone:1  log                   factor                1.0000000000E+00      1.0000000000E-02      1.0000000000E+02      npfklayer1pp          1.0000000000E+00      0.0000000000E+00      1          
                       pname:npfklayer1pp_inst:0_ptype:pp_pstyle:m_i:65_j:25_zone:1  log                   factor                1.0000000000E+00      1.0000000000E-02      1.0000000000E+02      npfklayer1pp          1.0000000000E+00      0.0000000000E+00      1          
                       pname:npfklayer1pp_inst:0_ptype:pp_pstyle:m_i:65_j:35_zone:1  log                   factor                1.0000000000E+00      1.0000000000E-02      1.0000000000E+02      npfklayer1pp          1.0000000000E+00      0.0000000000E+00      1          
                       pname:npfklayer1pp_inst:0_ptype:pp_pstyle:m_i:65_j:45_zone:1  log                   factor                1.0000000000E+00      1.0000000000E-02      1.0000000000E+02      npfklayer1pp          1.0000000000E+00      0.0000000000E+00      1          
                       pname:npfklayer1pp_inst:0_ptype:pp_pstyle:m_i:65_j:55_zone:1  log                   factor                1.0000000000E+00      1.0000000000E-02      1.0000000000E+02      npfklayer1pp          1.0000000000E+00      0.0000000000E+00      1          
                       pname:npfklayer1pp_inst:0_ptype:pp_pstyle:m_i:65_j:65_zone:1  log                   factor                1.0000000000E+00      1.0000000000E-02      1.0000000000E+02      npfklayer1pp          1.0000000000E+00      0.0000000000E+00      1          
                       pname:npfklayer1pp_inst:0_ptype:pp_pstyle:m_i:65_j:75_zone:1  log                   factor                1.0000000000E+00      1.0000000000E-02      1.0000000000E+02      npfklayer1pp          1.0000000000E+00      0.0000000000E+00      1          
                       pname:npfklayer1pp_inst:0_ptype:pp_pstyle:m_i:65_j:85_zone:1  log                   factor                1.0000000000E+00      1.0000000000E-02      1.0000000000E+02      npfklayer1pp          1.0000000000E+00      0.0000000000E+00      1          
                       pname:npfklayer1pp_inst:0_ptype:pp_pstyle:m_i:65_j:95_zone:1  log                   factor                1.0000000000E+00      1.0000000000E-02      1.0000000000E+02      npfklayer1pp          1.0000000000E+00      0.0000000000E+00      1          
                        pname:npfklayer1pp_inst:0_ptype:pp_pstyle:m_i:75_j:5_zone:1  log                   factor                1.0000000000E+00      1.0000000000E-02      1.0000000000E+02      npfklayer1pp          1.0000000000E+00      0.0000000000E+00      1          
                       pname:npfklayer1pp_inst:0_ptype:pp_pstyle:m_i:75_j:15_zone:1  log                   factor                1.0000000000E+00      1.0000000000E-02      1.0000000000E+02      npfklayer1pp          1.0000000000E+00      0.0000000000E+00      1          
                       pname:npfklayer1pp_inst:0_ptype:pp_pstyle:m_i:75_j:25_zone:1  log                   factor                1.0000000000E+00      1.0000000000E-02      1.0000000000E+02      npfklayer1pp          1.0000000000E+00      0.0000000000E+00      1          
                       pname:npfklayer1pp_inst:0_ptype:pp_pstyle:m_i:75_j:35_zone:1  log                   factor                1.0000000000E+00      1.0000000000E-02      1.0000000000E+02      npfklayer1pp          1.0000000000E+00      0.0000000000E+00      1          
                       pname:npfklayer1pp_inst:0_ptype:pp_pstyle:m_i:75_j:45_zone:1  log                   factor                1.0000000000E+00      1.0000000000E-02      1.0000000000E+02      npfklayer1pp          1.0000000000E+00      0.0000000000E+00      1          
                       pname:npfklayer1pp_inst:0_ptype:pp_pstyle:m_i:75_j:55_zone:1  log                   factor                1.0000000000E+00      1.0000000000E-02      1.0000000000E+02      npfklayer1pp          1.0000000000E+00      0.0000000000E+00      1          
                       pname:npfklayer1pp_inst:0_ptype:pp_pstyle:m_i:75_j:65_zone:1  log                   factor                1.0000000000E+00      1.0000000000E-02      1.0000000000E+02      npfklayer1pp          1.0000000000E+00      0.0000000000E+00      1          