# File generated by Flopy version 3.9.3 on 08/21/2025 at 14:53:13.
BEGIN options
  BUDGET  FILEOUT  local2.cbc
  HEAD  FILEOUT  local2.hds
END options

BEGIN period  1
  SAVE  HEAD  ALL
  SAVE  BUDGET  ALL
END period  1

