# File generated by Flopy version 3.9.3 on 08/21/2025 at 14:53:12.
BEGIN options
END options

BEGIN timing
  TDIS6  local2.tdis
END timing

BEGIN models
  gwf6  local2.nam  local2
END models

BEGIN exchanges
END exchanges

BEGIN solutiongroup  1
  ims6  local2.ims  local2
END solutiongroup  1

