# File generated by Flopy version 3.9.2 on 06/25/2025 at 12:53:07.
BEGIN options
  TIME_UNITS  days
END options

BEGIN dimensions
  NPER  1
END dimensions

BEGIN perioddata
       1.00000000  1       1.00000000
END perioddata

