# File generated by Flopy version 3.9.2 on 06/25/2025 at 12:53:07.
BEGIN options
END options

BEGIN dimensions
  MAXBOUND  330
END dimensions

BEGIN period  1
    OPEN/CLOSE  'local1.wel_influx_stress_period_data.txt'
END period  1

