# File generated by Flopy version 3.9.2 on 06/25/2025 at 12:53:07.
BEGIN options
END options

BEGIN timing
  TDIS6  local1.tdis
END timing

BEGIN models
  gwf6  local1.nam  local1
END models

BEGIN exchanges
END exchanges

BEGIN solutiongroup  1
  ims6  local1.ims  local1
END solutiongroup  1

